/*--------------------------------*- C++ -*----------------------------------*\
| =========                 |                                                 |
| \\      /  F ield         | foam-extend: Open Source CFD                    |
|  \\    /   O peration     | Version:     3.1                                |
|   \\  /    A nd           | Web:         http://www.extend-project.de       |
|    \\/     M anipulation  |                                                 |
\*---------------------------------------------------------------------------*/
FoamFile
{
    version     2.0;
    format      ascii;
    class       polyBoundaryMesh;
    location    "constant/polyMesh";
    object      boundary;
}
// * * * * * * * * * * * * * * * * * * * * * * * * * * * * * * * * * * * * * //

6
(
    inlet
    {
        type            patch;
        nFaces          80;
        startFace       159556;
    }
    outlet
    {
        type            patch;
        nFaces          80;
        startFace       159636;
    }
    atmosphere
    {
        type            patch;
        nFaces          1004;
        startFace       159716;
    }
    bottomWall
    {
        type            wall;
        nFaces          1004;
        startFace       160720;
    }
    left
    {
        type            patch;
        nFaces          80320;
        startFace       161724;
    }
    right
    {
        type            patch;
        nFaces          80320;
        startFace       242044;
    }
)

// ************************************************************************* //
