/*--------------------------------*- C++ -*----------------------------------*\
| =========                 |                                                 |
| \\      /  F ield         | OpenFOAM: The Open Source CFD Toolbox           |
|  \\    /   O peration     | Version:  4.1                                   |
|   \\  /    A nd           | Web:      www.OpenFOAM.org                      |
|    \\/     M anipulation  |                                                 |
\*---------------------------------------------------------------------------*/
FoamFile
{
    version     2.0;
    format      ascii;
    class       featureEdgeMesh;
    location    "constant/triSurface";
    object      riverSlope.eMesh;
}
// * * * * * * * * * * * * * * * * * * * * * * * * * * * * * * * * * * * * * //


// points:

58
(
(11.75 9.000001 0.080001)
(10.8751 9.000001 0.163301)
(11.75 1e-06 0.080001)
(10.8751 1e-06 0.163301)
(14.75 9.000001 1e-06)
(14.75 1e-06 1e-06)
(1.40977e-06 9.000001 1e-06)
(1.40977e-06 1e-06 1e-06)
(1.40977e-06 9.000001 0.380001)
(1.40977e-06 1e-06 0.380001)
(1.850001 9.000001 0.540001)
(1.850001 1e-06 0.540001)
(3.850001 9.000001 0.590001)
(3.850001 1e-06 0.590001)
(3.850001 9.000001 0.650001)
(3.850001 1e-06 0.650001)
(4.100001 9.000001 0.750001)
(4.028271 9.000001 0.7457964)
(4.100001 1e-06 0.750001)
(4.028271 1e-06 0.7457964)
(3.957735 9.000001 0.7322303)
(3.957735 1e-06 0.7322303)
(3.923645 9.000001 0.7208795)
(3.923645 1e-06 0.7208795)
(3.891387 9.000001 0.705108)
(3.891387 1e-06 0.705108)
(3.876611 9.000001 0.6948949)
(3.876611 1e-06 0.6948949)
(3.863599 9.000001 0.6825317)
(3.863599 1e-06 0.6825317)
(3.858179 9.000001 0.6753691)
(3.858179 1e-06 0.6753691)
(3.853842 9.000001 0.6674982)
(3.853842 1e-06 0.6674982)
(3.851181 9.000001 0.6589596)
(3.851181 1e-06 0.6589596)
(5.100001 9.000001 0.640001)
(5.100001 1e-06 0.640001)
(8.600001 9.000001 0.380001)
(8.600001 1e-06 0.380001)
(10.3709 9.000001 0.211301)
(10.3709 1e-06 0.211301)
(10.43 9.000001 0.214801)
(10.43 1e-06 0.214801)
(10.875 9.000001 0.358501)
(10.77717 9.000001 0.2890072)
(10.875 1e-06 0.358501)
(10.77717 1e-06 0.2890072)
(10.66734 9.000001 0.2406887)
(10.66734 1e-06 0.2406887)
(10.55 9.000001 0.215569)
(10.55 1e-06 0.215569)
(18.75 9.000001 0.020001)
(18.75 1e-06 0.020001)
(20.75 9.000001 0.010001)
(20.75 1e-06 0.010001)
(24.1 9.000001 1e-06)
(24.1 1e-06 1e-06)
)


// edges:

167
(
(0 1)
(3 2)
(4 0)
(2 5)
(7 6)
(6 4)
(5 7)
(9 8)
(8 6)
(7 9)
(11 10)
(10 8)
(9 11)
(12 10)
(11 13)
(15 14)
(14 12)
(13 15)
(18 16)
(16 17)
(17 19)
(19 18)
(17 20)
(20 21)
(21 19)
(20 22)
(22 23)
(23 21)
(22 24)
(24 25)
(25 23)
(24 26)
(26 27)
(27 25)
(26 28)
(28 29)
(29 27)
(28 30)
(30 31)
(31 29)
(30 32)
(32 33)
(33 31)
(32 34)
(34 35)
(35 33)
(34 14)
(15 35)
(36 16)
(18 37)
(39 38)
(38 36)
(37 39)
(40 38)
(39 41)
(43 42)
(42 40)
(41 43)
(46 44)
(44 45)
(47 46)
(45 48)
(49 47)
(48 50)
(51 49)
(50 42)
(43 51)
(1 44)
(46 3)
(53 52)
(52 4)
(5 53)
(54 52)
(53 55)
(57 56)
(56 54)
(55 57)
(4 56)
(57 5)
(2 0)
(1 3)
(13 12)
(37 36)
(41 40)
(45 47)
(48 49)
(50 51)
(55 54)
(8 11)
(10 13)
(20 19)
(24 23)
(30 29)
(34 33)
(14 35)
(16 37)
(36 39)
(38 41)
(45 46)
(48 47)
(50 49)
(42 51)
(52 55)
(1 2)
(0 5)
(4 7)
(6 9)
(12 15)
(17 18)
(22 21)
(26 25)
(28 27)
(32 31)
(40 43)
(44 3)
(1 45)
(1 48)
(1 50)
(40 50)
(1 40)
(1 6)
(6 40)
(0 6)
(6 38)
(8 38)
(10 38)
(12 38)
(12 36)
(14 36)
(34 36)
(32 36)
(30 36)
(28 36)
(26 36)
(24 36)
(22 36)
(22 16)
(20 16)
(47 3)
(49 3)
(51 3)
(41 51)
(41 3)
(41 7)
(7 3)
(39 7)
(39 9)
(39 11)
(39 13)
(37 13)
(37 15)
(37 35)
(37 33)
(37 31)
(37 29)
(37 27)
(37 25)
(37 23)
(18 23)
(18 21)
(2 7)
(4 53)
(54 57)
(56 5)
(55 5)
(4 54)
(5 4)
)

// * * * * * * * * * * * * * * * * * * * * * * * * * * * * * * * * * * * * * //


// ************************************************************************* //
