/*--------------------------------*- C++ -*----------------------------------*\
| =========                 |                                                 |
| \\      /  F ield         | foam-extend: Open Source CFD                    |
|  \\    /   O peration     | Version:     3.1                                |
|   \\  /    A nd           | Web:         http://www.extend-project.de       |
|    \\/     M anipulation  |                                                 |
\*---------------------------------------------------------------------------*/
FoamFile
{
    version     2.0;
    format      ascii;
    class       dictionary;
    location    "system";
    object      controlDict;
}
// * * * * * * * * * * * * * * * * * * * * * * * * * * * * * * * * * * * * * //

application     interFoam;

startFrom       startTime;

startTime       0;

stopAt          endTime;

endTime		20;

deltaT          0.0005;

writeControl    adjustableRunTime;

writeInterval   0.5;

purgeWrite      0;

writeFormat     ascii;

writePrecision  7;

writeCompression uncompressed;

timeFormat      general;

timePrecision   7;

runTimeModifiable yes;

adjustTimeStep  on;

maxCo           0.5;

maxAlphaCo	0.5;

maxDeltaT       0.001;

//libs		{
//		"libOpenFOAM.so"
		//"lipsimpelswakFunctionObjects.so"
		//"lipswakFunctionObjects.so"
		//"lipgroovyBC.so"
		}

functions 
{
	inletFlux
    {
        type            faceSource;
        functionObjectLibs ("libfieldFunctionObjects.so");
        outputControl   timeStep;
        log             true;
        // Output field values as well
        valueOutput     false;
        source          patch;
        sourceName      inletWater;
        operation       sum;

        fields
        (
            rhoPhi
        );
    }

    outletFlux
    {
        $inletFlux;
        sourceName      outlet;
    }

    atmosphereFlux
    {
        $inletFlux;
        sourceName      atmosphere;
    }
}

// ************************************************************************* //
