/*--------------------------------*- C++ -*----------------------------------*\
| =========                 |                                                 |
| \\      /  F ield         | OpenFOAM: The Open Source CFD Toolbox           |
|  \\    /   O peration     | Version:  4.1                                   |
|   \\  /    A nd           | Web:      www.OpenFOAM.org                      |
|    \\/     M anipulation  |                                                 |
\*---------------------------------------------------------------------------*/
FoamFile
{
    version     2.0;
    format      ascii;
    class       extendedFeatureEdgeMesh;
    location    "constant/extendedFeatureEdgeMesh";
    object      riverSlope.extendedFeatureEdgeMesh;
}
// * * * * * * * * * * * * * * * * * * * * * * * * * * * * * * * * * * * * * //

// points

58
(
(11.75 9.000001 0.080001)
(10.8751 9.000001 0.163301)
(11.75 1e-06 0.080001)
(10.8751 1e-06 0.163301)
(14.75 9.000001 1e-06)
(14.75 1e-06 1e-06)
(1.40977e-06 9.000001 1e-06)
(1.40977e-06 1e-06 1e-06)
(1.40977e-06 9.000001 0.380001)
(1.40977e-06 1e-06 0.380001)
(1.850001 9.000001 0.540001)
(1.850001 1e-06 0.540001)
(3.850001 9.000001 0.590001)
(3.850001 1e-06 0.590001)
(3.850001 9.000001 0.650001)
(3.850001 1e-06 0.650001)
(4.100001 9.000001 0.750001)
(4.028271 9.000001 0.7457964)
(4.100001 1e-06 0.750001)
(4.028271 1e-06 0.7457964)
(3.957735 9.000001 0.7322303)
(3.957735 1e-06 0.7322303)
(3.923645 9.000001 0.7208795)
(3.923645 1e-06 0.7208795)
(3.891387 9.000001 0.705108)
(3.891387 1e-06 0.705108)
(3.876611 9.000001 0.6948949)
(3.876611 1e-06 0.6948949)
(3.863599 9.000001 0.6825317)
(3.863599 1e-06 0.6825317)
(3.858179 9.000001 0.6753691)
(3.858179 1e-06 0.6753691)
(3.853842 9.000001 0.6674982)
(3.853842 1e-06 0.6674982)
(3.851181 9.000001 0.6589596)
(3.851181 1e-06 0.6589596)
(5.100001 9.000001 0.640001)
(5.100001 1e-06 0.640001)
(8.600001 9.000001 0.380001)
(8.600001 1e-06 0.380001)
(10.3709 9.000001 0.211301)
(10.3709 1e-06 0.211301)
(10.43 9.000001 0.214801)
(10.43 1e-06 0.214801)
(10.875 9.000001 0.358501)
(10.77717 9.000001 0.2890072)
(10.875 1e-06 0.358501)
(10.77717 1e-06 0.2890072)
(10.66734 9.000001 0.2406887)
(10.66734 1e-06 0.2406887)
(10.55 9.000001 0.215569)
(10.55 1e-06 0.215569)
(18.75 9.000001 0.020001)
(18.75 1e-06 0.020001)
(20.75 9.000001 0.010001)
(20.75 1e-06 0.010001)
(24.1 9.000001 1e-06)
(24.1 1e-06 1e-06)
)

// edges

167
(
(0 1)
(3 2)
(4 0)
(2 5)
(7 6)
(6 4)
(5 7)
(9 8)
(8 6)
(7 9)
(11 10)
(10 8)
(9 11)
(12 10)
(11 13)
(15 14)
(14 12)
(13 15)
(18 16)
(16 17)
(17 19)
(19 18)
(17 20)
(20 21)
(21 19)
(20 22)
(22 23)
(23 21)
(22 24)
(24 25)
(25 23)
(24 26)
(26 27)
(27 25)
(26 28)
(28 29)
(29 27)
(28 30)
(30 31)
(31 29)
(30 32)
(32 33)
(33 31)
(32 34)
(34 35)
(35 33)
(34 14)
(15 35)
(36 16)
(18 37)
(39 38)
(38 36)
(37 39)
(40 38)
(39 41)
(43 42)
(42 40)
(41 43)
(46 44)
(44 45)
(47 46)
(45 48)
(49 47)
(48 50)
(51 49)
(50 42)
(43 51)
(1 44)
(46 3)
(53 52)
(52 4)
(5 53)
(54 52)
(53 55)
(57 56)
(56 54)
(55 57)
(4 56)
(57 5)
(2 0)
(1 3)
(13 12)
(37 36)
(41 40)
(45 47)
(48 49)
(50 51)
(55 54)
(8 11)
(10 13)
(20 19)
(24 23)
(30 29)
(34 33)
(14 35)
(16 37)
(36 39)
(38 41)
(45 46)
(48 47)
(50 49)
(42 51)
(52 55)
(1 2)
(0 5)
(4 7)
(6 9)
(12 15)
(17 18)
(22 21)
(26 25)
(28 27)
(32 31)
(40 43)
(44 3)
(1 45)
(1 48)
(1 50)
(40 50)
(1 40)
(1 6)
(6 40)
(0 6)
(6 38)
(8 38)
(10 38)
(12 38)
(12 36)
(14 36)
(34 36)
(32 36)
(30 36)
(28 36)
(26 36)
(24 36)
(22 36)
(22 16)
(20 16)
(47 3)
(49 3)
(51 3)
(41 51)
(41 3)
(41 7)
(7 3)
(39 7)
(39 9)
(39 11)
(39 13)
(37 13)
(37 15)
(37 35)
(37 33)
(37 31)
(37 29)
(37 27)
(37 25)
(37 23)
(18 23)
(18 21)
(2 7)
(4 53)
(54 57)
(56 5)
(55 5)
(4 54)
(5 4)
)

// concaveStart mixedStart nonFeatureStart
0 0 58
// internalStart flatStart openStart multipleStart
79 88 166 166
// normals

112
(
(0.02665719 0 0.9996446)
(-0.004999936 0 0.9999875)
(0 0 -1)
(0 0 -1)
(0.09478227 0 0.995498)
(0 1 0)
(0.09478227 0 0.995498)
(0 -1 0)
(0 1 0)
(0.02665719 0 0.9996446)
(0 -1 0)
(0 0 -1)
(-1 0 0)
(-1 -0 -0)
(-0.08616481 0 0.9962809)
(0 1 0)
(0 -1 0)
(-0.08616481 0 0.9962809)
(-0.0249922 0 0.9996876)
(0 1 0)
(0 -1 0)
(-0.0249922 0 0.9996876)
(-0 1 0)
(0 -1 0)
(-1 -0 -0)
(-0.9914375 0 0.1305821)
(0 1 0)
(-1 0 0)
(0 -1 0)
(-0.05851608 0 0.9982865)
(0.1093405 0 0.9940044)
(0 1 0)
(-0.05851608 0 0.9982865)
(-0.1888681 0 0.9820025)
(0 -1 0)
(-0.1888681 0 0.9820025)
(-0.3159137 0 0.9487879)
(0 1 0)
(-0.3159137 0 0.9487879)
(-0.4392241 0 0.8983775)
(0 -1 0)
(-0.4392241 0 0.8983775)
(0 1 0)
(-0.5685928 0 0.8226192)
(0 -1 0)
(0 1 0)
(-0.5685928 0 0.8226192)
(-0.6888189 0 0.7249334)
(0 -1 0)
(-0 1 0)
(-0.6888189 0 0.7249334)
(-0.7973846 0 0.6034714)
(0 -1 0)
(-0.7973846 0 0.6034714)
(0 1 0)
(-0.8758476 0 0.4825877)
(0 -1 0)
(0 1 0)
(-0.8758476 0 0.4825877)
(-0.9547286 0 0.2974784)
(0 -1 0)
(-0.9547286 0 0.2974784)
(-0 1 0)
(-0.9914375 0 0.1305821)
(0 -1 0)
(0 1 0)
(0 -1 0)
(0.1093405 0 0.9940044)
(0 1 0)
(0 -1 0)
(0.07408159 0 0.9972522)
(0.07408159 0 0.9972522)
(0.09483299 0 0.9954932)
(0 1 0)
(0 -1 0)
(0.09483299 0 0.9954932)
(0 1 0)
(0 -1 0)
(-0.05911792 0 0.998251)
(-0.006400302 0 0.9999795)
(0 1 0)
(-0.05911792 0 0.998251)
(0 -1 -0)
(-0.5791247 0 0.815239)
(-0.5791247 0 0.815239)
(0.9999999 0 0.0005129908)
(0 1 0)
(0 -1 -0)
(-0.402681 0 0.9153404)
(-0.402681 0 0.9153404)
(0 1 0)
(0 -1 0)
(-0.2093261 0 0.9778459)
(-0.2093261 0 0.9778459)
(0 1 0)
(0 -1 0)
(-0.006400302 0 0.9999795)
(0.9999999 0 0.0005129908)
(-0.004999936 0 0.9999875)
(0.004999937 0 0.9999875)
(0 1 0)
(0 -1 0)
(0.004999937 0 0.9999875)
(0.002985063 0 0.9999955)
(0 0 -1)
(0 1 0)
(0.002985063 0 0.9999955)
(0 -1 0)
(0 1 0)
(0 1 0)
(0 -1 -0)
(-0 -1 0)
)

// normal volume types

112
(
0
0
0
0
0
0
0
0
0
0
0
0
0
0
0
0
0
0
0
0
0
0
0
0
0
0
0
0
0
0
0
0
0
0
0
0
0
0
0
0
0
0
0
0
0
0
0
0
0
0
0
0
0
0
0
0
0
0
0
0
0
0
0
0
0
0
0
0
0
0
0
0
0
0
0
0
0
0
0
0
0
0
0
0
0
0
0
0
0
0
0
0
0
0
0
0
0
0
0
0
0
0
0
0
0
0
0
0
0
0
0
0
)

// normalDirections

167
(
2(1 -1)
2(1 -1)
2(1 -1)
2(1 -1)
2(1 -1)
2(1 -1)
2(1 -1)
2(1 -1)
2(1 -1)
2(1 -1)
2(1 -1)
2(1 -1)
2(1 -1)
2(1 -1)
2(1 -1)
2(1 -1)
2(1 -1)
2(1 -1)
2(1 -1)
2(1 -1)
2(1 -1)
2(1 -1)
2(1 -1)
2(1 -1)
2(1 -1)
2(1 -1)
2(1 -1)
2(1 -1)
2(1 -1)
2(1 -1)
2(1 -1)
2(1 -1)
2(1 -1)
2(1 -1)
2(1 -1)
2(1 -1)
2(1 -1)
2(1 -1)
2(1 -1)
2(1 -1)
2(1 -1)
2(1 -1)
2(1 -1)
2(1 -1)
2(1 -1)
2(1 -1)
2(1 -1)
2(1 -1)
2(1 -1)
2(1 -1)
2(1 -1)
2(1 -1)
2(1 -1)
2(1 -1)
2(1 -1)
2(1 -1)
2(1 -1)
2(1 -1)
2(1 -1)
2(1 -1)
2(1 -1)
2(1 -1)
2(1 -1)
2(1 -1)
2(1 -1)
2(1 -1)
2(1 -1)
2(1 -1)
2(1 -1)
2(1 -1)
2(1 -1)
2(1 -1)
2(1 -1)
2(1 -1)
2(1 -1)
2(1 -1)
2(1 -1)
2(1 -1)
2(1 -1)
2(1 -1)
2(1 -1)
2(1 -1)
2(1 -1)
2(1 -1)
2(1 -1)
2(1 -1)
2(1 -1)
2(1 -1)
2(1 -1)
2(1 -1)
2(1 -1)
2(1 -1)
2(1 -1)
2(1 -1)
2(1 -1)
2(1 -1)
2(1 -1)
2(1 -1)
2(1 -1)
2(1 -1)
2(1 -1)
2(1 -1)
2(1 -1)
2(1 -1)
2(1 -1)
2(1 -1)
2(1 -1)
2(1 -1)
2(1 -1)
2(1 -1)
2(1 -1)
2(1 -1)
2(1 -1)
2(1 -1)
2(1 -1)
2(1 -1)
2(1 -1)
2(1 -1)
2(1 -1)
2(1 -1)
2(1 -1)
2(1 -1)
2(1 -1)
2(1 -1)
2(1 -1)
2(1 -1)
2(1 -1)
2(1 -1)
2(1 -1)
2(1 -1)
2(1 -1)
2(1 -1)
2(1 -1)
2(1 -1)
2(1 -1)
2(1 -1)
2(1 -1)
2(1 -1)
2(1 -1)
2(1 -1)
2(1 -1)
2(1 -1)
2(1 -1)
2(1 -1)
2(1 -1)
2(1 -1)
2(1 -1)
2(1 -1)
2(1 -1)
2(1 -1)
2(1 -1)
2(1 -1)
2(1 -1)
2(1 -1)
2(1 -1)
2(1 -1)
2(1 -1)
2(1 -1)
2(1 -1)
2(1 -1)
2(1 -1)
2(1 -1)
2(1 -1)
2(1 -1)
2(1 -1)
2(1 -1)
4(1 -1 1 -1)
)

// edgeNormals

167
(
2(4 5)
2(6 7)
2(0 8)
2(9 10)
2(11 12)
2(11 8)
2(3 10)
2(13 14)
2(13 15)
2(12 16)
2(17 18)
2(17 19)
2(14 20)
2(21 22)
2(18 23)
2(24 25)
2(24 26)
2(27 28)
2(29 30)
2(29 31)
2(32 33)
2(32 34)
2(33 31)
2(35 36)
2(35 34)
2(36 37)
2(38 39)
2(38 40)
2(39 42)
2(41 43)
2(41 44)
2(43 45)
2(46 47)
2(46 48)
2(47 49)
2(50 51)
2(50 52)
2(51 54)
2(53 55)
2(53 56)
2(55 57)
2(58 59)
2(58 60)
2(59 62)
2(61 63)
2(61 64)
2(63 65)
2(25 66)
2(67 68)
2(30 69)
2(70 72)
2(70 73)
2(71 74)
2(75 76)
2(72 77)
2(78 79)
2(78 80)
2(81 82)
2(83 85)
2(83 86)
2(84 87)
2(88 90)
2(89 91)
2(92 94)
2(93 95)
2(96 80)
2(79 82)
2(97 86)
2(85 87)
2(98 99)
2(98 100)
2(1 101)
2(102 100)
2(99 101)
2(103 104)
2(103 105)
2(106 107)
2(2 105)
2(104 107)
2(4 9)
2(6 97)
2(21 27)
2(67 71)
2(75 81)
2(84 88)
2(89 92)
2(93 96)
2(102 106)
2(17 14)
2(21 18)
2(33 35)
2(39 41)
2(51 53)
2(59 61)
2(63 25)
2(67 30)
2(70 71)
2(75 72)
2(83 84)
2(88 89)
2(92 93)
2(96 79)
2(102 99)
2(4 6)
2(0 9)
2(11 3)
2(13 12)
2(24 27)
2(29 32)
2(36 38)
2(43 46)
2(47 50)
2(55 58)
2(78 81)
2(97 85)
2(86 90)
2(90 94)
2(94 108)
2(108 80)
2(108 109)
2(109 5)
2(109 76)
2(5 8)
2(76 15)
2(15 19)
2(19 22)
2(22 73)
2(73 26)
2(26 65)
2(65 62)
2(62 57)
2(57 54)
2(54 49)
2(49 45)
2(45 42)
2(42 68)
2(68 37)
2(37 31)
2(87 91)
2(91 95)
2(95 110)
2(82 110)
2(110 111)
2(111 77)
2(111 7)
2(77 16)
2(16 20)
2(20 23)
2(23 74)
2(74 28)
2(28 66)
2(66 64)
2(64 60)
2(60 56)
2(56 52)
2(52 48)
2(48 44)
2(44 69)
2(69 40)
2(40 34)
2(10 7)
2(98 1)
2(103 106)
2(2 104)
2(107 101)
2(105 100)
4(0 1 2 3)
)

// featurePointNormals

58
(
3(4 5 0)
3(4 5 97)
3(6 7 9)
3(6 7 85)
4(0 8 11 98)
4(9 10 3 1)
3(11 12 8)
3(11 12 10)
3(13 14 15)
3(13 14 16)
3(17 18 19)
3(17 18 20)
3(21 22 24)
3(18 23 27)
3(24 25 26)
3(24 25 28)
3(29 30 31)
3(29 31 33)
3(29 30 34)
3(32 33 34)
3(33 31 36)
3(35 36 34)
3(36 37 39)
3(38 39 40)
3(39 42 43)
3(41 43 44)
3(43 45 47)
3(46 47 48)
3(47 49 51)
3(50 51 52)
3(51 54 55)
3(53 55 56)
3(55 57 59)
3(58 59 60)
3(59 62 63)
3(61 63 64)
3(67 68 70)
3(30 69 71)
3(70 72 73)
3(70 72 74)
3(75 76 78)
3(72 77 81)
3(78 79 80)
3(78 79 82)
3(83 85 86)
3(83 86 88)
3(83 85 87)
3(84 87 89)
3(88 90 92)
3(89 91 93)
3(92 94 96)
3(93 95 79)
3(98 99 100)
3(98 99 101)
3(102 100 103)
3(99 101 106)
3(103 104 105)
3(103 104 107)
)

// featurePointEdges

58
(
5(79 104 2 122 0)
9(103 80 67 115 116 117 119 120 0)
5(103 1 160 3 79)
9(80 114 68 138 139 140 142 144 1)
8(166 2 105 5 161 70 77 165)
8(104 166 3 6 71 163 78 164)
8(4 106 8 123 121 120 122 5)
8(105 6 160 144 143 145 9 4)
5(7 88 11 124 8)
5(106 9 146 12 7)
5(10 89 13 125 11)
5(88 12 147 14 10)
6(81 107 16 127 126 13)
6(89 14 148 149 17 81)
5(15 94 46 128 16)
5(107 17 150 47 15)
6(18 95 48 136 137 19)
4(108 20 22 19)
6(108 21 159 158 49 18)
4(20 90 24 21)
5(90 23 25 137 22)
5(23 109 27 159 24)
6(109 26 28 135 136 25)
6(26 91 30 157 158 27)
5(91 29 31 134 28)
5(29 110 33 156 30)
5(110 32 34 133 31)
5(32 111 36 155 33)
5(111 35 37 132 34)
5(35 92 39 154 36)
5(92 38 40 131 37)
5(38 112 42 153 39)
5(112 41 43 130 40)
5(41 93 45 152 42)
5(93 44 46 129 43)
5(44 94 47 151 45)

13
(
82
96
51
127
128
129
130
131
132
133
134
135
48
)


13
(
95
49
157
156
155
154
153
152
151
150
149
52
82
)

8(50 97 53 123 124 125 126 51)
8(96 52 148 147 146 145 54 50)
7(83 113 56 118 119 121 53)
7(97 54 143 142 141 57 83)
4(55 101 65 56)
4(113 57 66 55)
4(58 114 67 59)
5(98 84 61 115 59)
4(98 60 68 58)
5(84 99 62 138 60)
5(99 85 63 116 61)
5(85 100 64 139 62)
6(100 86 65 118 117 63)
6(86 101 66 141 140 64)
4(69 102 72 70)
4(161 71 73 69)
5(87 162 75 165 72)
5(102 73 164 76 87)
4(74 163 77 75)
4(162 76 78 74)
)

// regionEdges
1(166)


// ************************************************************************* //
