/*--------------------------------*- C++ -*----------------------------------*\
| =========                 |                                                 |
| \\      /  F ield         | OpenFOAM: The Open Source CFD Toolbox           |
|  \\    /   O peration     | Version:  1.5                                   |
|   \\  /    A nd           | Web:      http://www.OpenFOAM.org               |
|    \\/     M anipulation  |                                                 |
\*---------------------------------------------------------------------------*/
FoamFile
{
    version     2.0;
    format      ascii;
    class       dictionary;
    object      blockMeshDict;
}
// * * * * * * * * * * * * * * * * * * * * * * * * * * * * * * * * * * * * * //

convertToMeters 1;

vertices        
(
    (0 0 0)
    (3.85 0 0)
    (4.1 0 0)
    (10.4 0 0) 	
    (10.875 0 0) 
    (11.75 0 0)	
    (24.1 0 0)

    (24.1 0 1)
    (11.75 0 1)
    (10.875 0 1)
    (10.4 0 1) 	
    (4.1 0 1) 
    (3.85 0 1)	
    (0 0 1)


    (0 0.1 0)
    (3.85 0.1 0)
    (4.1 0.1 0)
    (10.4 0.1 0) 	
    (10.875 0.1 0) 
    (11.75 0.1 0)	
    (24.1 0.1 0)

    (24.1 0.1 1)
    (11.75 0.1 1) 
    (10.875 0.1 1) 
    (10.4 0.1 1) 	
    (4.1 0.1 1)
    (3.85 0.1 1)	
    (0 0.1 1)
);

blocks          
(
    	hex (0 1 15 14 13 12 26 27) (386 1 1) simpleGrading (1 1 1)
	hex (1 2 16 15 12 11 25 26) (99 1 1) simpleGrading (1 1 1)
	hex (2 3 17 16 11 10 24 25) (630 1 1) simpleGrading (1 1 1)
	hex (3 4 18 17 10 9 23 24) (101 1 1) simpleGrading (1 1 1)
	hex (4 5 19 18 9 8 22 23) (88 1 1) simpleGrading (1 1 1)
	hex (5 6 20 19 8 7 21 22) (1235 1 1) simpleGrading (1 1 1)
);

edges           
(
);

patches         
(
    patch inlet
    (
        (0 13 27 14)
    )
    patch outlet
    (
        (6 20 21 7)
    )

    empty right
    (
        (0 1 12 13)
	(1 2 11 12)
	(2 3 10 11)
	(3 4 9 10)
	(4 5 8 9)
	(5 6 7 8)
    )
    empty left
    (
        (15 14 27 26)
	(16 15 26 25)
	(17 16 25 24)
	(18 17 24 23)
	(19 18 23 22)
	(20 19 22 21)
    )
    empty atmosphere
    (
        (13 12 26 27)
        (12 11 25 26)
	(11 10 24 25)
	(10 9 23 24)
	(9 8 22 23)
	(8 7 21 22)
     )
    empty bottomWall
     (
	(0 14 15 1)
	(1 15 16 2)
	(2 16 17 3)
	(3 17 18 4)
	(4 18 19 5)
	(5 19 20 6)
    )
);

mergePatchPairs 
(
);

// ************************************************************************* //
