/*--------------------------------*- C++ -*----------------------------------*\
| =========                 |                                                 |
| \\      /  F ield         | foam-extend: Open Source CFD                    |
|  \\    /   O peration     | Version:     3.1                                |
|   \\  /    A nd           | Web:         http://www.extend-project.de       |
|    \\/     M anipulation  |                                                 |
\*---------------------------------------------------------------------------*/
FoamFile
{
    version     2.0;
    format      ascii;
    class       polyBoundaryMesh;
    location    "constant/polyMesh";
    object      boundary;
}
// * * * * * * * * * * * * * * * * * * * * * * * * * * * * * * * * * * * * * //

6
(
    inlet
    {
        type            patch;
        nFaces          1;
        startFace       2538;
    }
    outlet
    {
        type            patch;
        nFaces          1;
        startFace       2539;
    }
    right
    {
        type            empty;
        nFaces          2539;
        startFace       2540;
    }
    left
    {
        type            empty;
        nFaces          2539;
        startFace       5079;
    }
    atmosphere
    {
        type            empty;
        nFaces          2539;
        startFace       7618;
    }
    bottomWall
    {
        type            empty;
        nFaces          2539;
        startFace       10157;
    }
)

// ************************************************************************* //
