/*--------------------------------*- C++ -*----------------------------------*\
| =========                 |                                                 |
| \\      /  F ield         | foam-extend: Open Source CFD                    |
|  \\    /   O peration     | Version:     3.1                                |
|   \\  /    A nd           | Web:         http://www.extend-project.de       |
|    \\/     M anipulation  |                                                 |
\*---------------------------------------------------------------------------*/
FoamFile
{
    version     2.0;
    format      ascii;
    class       dictionary;
    location    system;
    object      sampleDict;
}
// * * * * * * * * * * * * * * * * * * * * * * * * * * * * * * * * * * * * //

// Set output format : choice of
//      xmgr
//      jplot
//      gnuplot
//      raw
setFormat raw;

// Surface output format. Choice of
//      null        : suppress output
//      foamFile    : separate points, faces and values file
//      dx          : DX scalar or vector format
//      vtk         : VTK ascii format
//      raw         : x y z value format for use with e.g. gnuplot 'splot'.
//
// Note:
// other formats such as obj, stl, etc can also be written (by proxy)
// but without any values!
surfaceFormat raw;

// interpolationScheme. choice of
//      cell          : use cell-centre value only; constant over cells (default)
//      cellPoint     : use cell-centre and vertex values
//      cellPointFace : use cell-centre, vertex and face values.
// 1] vertex values determined from neighbouring cell-centre values
// 2] face values determined using the current face interpolation scheme
//    for the field (linear, gamma, etc.)
interpolationScheme cell;

// Fields to sample.
fields
(
  alpha1
);

// Set sampling definition: choice of
//      uniform             evenly distributed points on line
//      face                one point per face intersection
//      midPoint            one point per cell, inbetween two face intersections
//      midPointAndFace     combination of face and midPoint
//
//      curve               specified points, not nessecary on line, uses
//                          tracking
//      cloud               specified points, uses findCell
//
// axis: how to write point coordinate. Choice of
// - x/y/z: x/y/z coordinate only
// - xyz: three columns
//  (probably does not make sense for anything but raw)
// - distance: distance from start of sampling line (if uses line) or
//             distance from first specified sampling point
//
// type specific:
//      uniform, face, midPoint, midPointAndFace : start and end coordinate
//      uniform: extra number of sampling points
//      curve, cloud: list of coordinates
sets
(
line1
{
type uniform;
axis distance;
start (
.0125
1.05
0
);
end (
.0125
1.05
2
);
nPoints 80;
}

line2
{
type uniform;
axis distance;
start (
.0375
1.05
0
);
end (
.0375
1.05
2
);
nPoints 80;
}

line3
{
type uniform;
axis distance;
start (
.0625
1.05
0
);
end (
.0625
1.05
2
);
nPoints 80;
}

line4
{
type uniform;
axis distance;
start (
.0875
1.05
0
);
end (
.0875
1.05
2
);
nPoints 80;
}

line5
{
type uniform;
axis distance;
start (
.1125
1.05
0
);
end (
.1125
1.05
2
);
nPoints 80;
}

line6
{
type uniform;
axis distance;
start (
.1375
1.05
0
);
end (
.1375
1.05
2
);
nPoints 80;
}

line7
{
type uniform;
axis distance;
start (
.1625
1.05
0
);
end (
.1625
1.05
2
);
nPoints 80;
}

line8
{
type uniform;
axis distance;
start (
.1875
1.05
0
);
end (
.1875
1.05
2
);
nPoints 80;
}

line9
{
type uniform;
axis distance;
start (
.2125
1.05
0
);
end (
.2125
1.05
2
);
nPoints 80;
}

line10
{
type uniform;
axis distance;
start (
.2375
1.05
0
);
end (
.2375
1.05
2
);
nPoints 80;
}

line11
{
type uniform;
axis distance;
start (
.2625
1.05
0
);
end (
.2625
1.05
2
);
nPoints 80;
}

line12
{
type uniform;
axis distance;
start (
.2875
1.05
0
);
end (
.2875
1.05
2
);
nPoints 80;
}

line13
{
type uniform;
axis distance;
start (
.3125
1.05
0
);
end (
.3125
1.05
2
);
nPoints 80;
}

line14
{
type uniform;
axis distance;
start (
.3375
1.05
0
);
end (
.3375
1.05
2
);
nPoints 80;
}

line15
{
type uniform;
axis distance;
start (
.3625
1.05
0
);
end (
.3625
1.05
2
);
nPoints 80;
}

line16
{
type uniform;
axis distance;
start (
.3875
1.05
0
);
end (
.3875
1.05
2
);
nPoints 80;
}

line17
{
type uniform;
axis distance;
start (
.4125
1.05
0
);
end (
.4125
1.05
2
);
nPoints 80;
}

line18
{
type uniform;
axis distance;
start (
.4375
1.05
0
);
end (
.4375
1.05
2
);
nPoints 80;
}

line19
{
type uniform;
axis distance;
start (
.4625
1.05
0
);
end (
.4625
1.05
2
);
nPoints 80;
}

line20
{
type uniform;
axis distance;
start (
.4875
1.05
0
);
end (
.4875
1.05
2
);
nPoints 80;
}

line21
{
type uniform;
axis distance;
start (
.5125
1.05
0
);
end (
.5125
1.05
2
);
nPoints 80;
}

line22
{
type uniform;
axis distance;
start (
.5375
1.05
0
);
end (
.5375
1.05
2
);
nPoints 80;
}

line23
{
type uniform;
axis distance;
start (
.5625
1.05
0
);
end (
.5625
1.05
2
);
nPoints 80;
}

line24
{
type uniform;
axis distance;
start (
.5875
1.05
0
);
end (
.5875
1.05
2
);
nPoints 80;
}

line25
{
type uniform;
axis distance;
start (
.6125
1.05
0
);
end (
.6125
1.05
2
);
nPoints 80;
}

line26
{
type uniform;
axis distance;
start (
.6375
1.05
0
);
end (
.6375
1.05
2
);
nPoints 80;
}

line27
{
type uniform;
axis distance;
start (
.6625
1.05
0
);
end (
.6625
1.05
2
);
nPoints 80;
}

line28
{
type uniform;
axis distance;
start (
.6875
1.05
0
);
end (
.6875
1.05
2
);
nPoints 80;
}

line29
{
type uniform;
axis distance;
start (
.7125
1.05
0
);
end (
.7125
1.05
2
);
nPoints 80;
}

line30
{
type uniform;
axis distance;
start (
.7375
1.05
0
);
end (
.7375
1.05
2
);
nPoints 80;
}

line31
{
type uniform;
axis distance;
start (
.7625
1.05
0
);
end (
.7625
1.05
2
);
nPoints 80;
}

line32
{
type uniform;
axis distance;
start (
.7875
1.05
0
);
end (
.7875
1.05
2
);
nPoints 80;
}

line33
{
type uniform;
axis distance;
start (
.8125
1.05
0
);
end (
.8125
1.05
2
);
nPoints 80;
}

line34
{
type uniform;
axis distance;
start (
.8375
1.05
0
);
end (
.8375
1.05
2
);
nPoints 80;
}

line35
{
type uniform;
axis distance;
start (
.8625
1.05
0
);
end (
.8625
1.05
2
);
nPoints 80;
}

line36
{
type uniform;
axis distance;
start (
.8875
1.05
0
);
end (
.8875
1.05
2
);
nPoints 80;
}

line37
{
type uniform;
axis distance;
start (
.9125
1.05
0
);
end (
.9125
1.05
2
);
nPoints 80;
}

line38
{
type uniform;
axis distance;
start (
.9375
1.05
0
);
end (
.9375
1.05
2
);
nPoints 80;
}

line39
{
type uniform;
axis distance;
start (
.9625
1.05
0
);
end (
.9625
1.05
2
);
nPoints 80;
}

line40
{
type uniform;
axis distance;
start (
.9875
1.05
0
);
end (
.9875
1.05
2
);
nPoints 80;
}

line41
{
type uniform;
axis distance;
start (
1.0125
1.05
0
);
end (
1.0125
1.05
2
);
nPoints 80;
}

line42
{
type uniform;
axis distance;
start (
1.0375
1.05
0
);
end (
1.0375
1.05
2
);
nPoints 80;
}

line43
{
type uniform;
axis distance;
start (
1.0625
1.05
0
);
end (
1.0625
1.05
2
);
nPoints 80;
}

line44
{
type uniform;
axis distance;
start (
1.0875
1.05
0
);
end (
1.0875
1.05
2
);
nPoints 80;
}

line45
{
type uniform;
axis distance;
start (
1.1125
1.05
0
);
end (
1.1125
1.05
2
);
nPoints 80;
}

line46
{
type uniform;
axis distance;
start (
1.1375
1.05
0
);
end (
1.1375
1.05
2
);
nPoints 80;
}

line47
{
type uniform;
axis distance;
start (
1.1625
1.05
0
);
end (
1.1625
1.05
2
);
nPoints 80;
}

line48
{
type uniform;
axis distance;
start (
1.1875
1.05
0
);
end (
1.1875
1.05
2
);
nPoints 80;
}

line49
{
type uniform;
axis distance;
start (
1.2125
1.05
0
);
end (
1.2125
1.05
2
);
nPoints 80;
}

line50
{
type uniform;
axis distance;
start (
1.2375
1.05
0
);
end (
1.2375
1.05
2
);
nPoints 80;
}

line51
{
type uniform;
axis distance;
start (
1.2625
1.05
0
);
end (
1.2625
1.05
2
);
nPoints 80;
}

line52
{
type uniform;
axis distance;
start (
1.2875
1.05
0
);
end (
1.2875
1.05
2
);
nPoints 80;
}

line53
{
type uniform;
axis distance;
start (
1.3125
1.05
0
);
end (
1.3125
1.05
2
);
nPoints 80;
}

line54
{
type uniform;
axis distance;
start (
1.3375
1.05
0
);
end (
1.3375
1.05
2
);
nPoints 80;
}

line55
{
type uniform;
axis distance;
start (
1.3625
1.05
0
);
end (
1.3625
1.05
2
);
nPoints 80;
}

line56
{
type uniform;
axis distance;
start (
1.3875
1.05
0
);
end (
1.3875
1.05
2
);
nPoints 80;
}

line57
{
type uniform;
axis distance;
start (
1.4125
1.05
0
);
end (
1.4125
1.05
2
);
nPoints 80;
}

line58
{
type uniform;
axis distance;
start (
1.4375
1.05
0
);
end (
1.4375
1.05
2
);
nPoints 80;
}

line59
{
type uniform;
axis distance;
start (
1.4625
1.05
0
);
end (
1.4625
1.05
2
);
nPoints 80;
}

line60
{
type uniform;
axis distance;
start (
1.4875
1.05
0
);
end (
1.4875
1.05
2
);
nPoints 80;
}

line61
{
type uniform;
axis distance;
start (
1.5125
1.05
0
);
end (
1.5125
1.05
2
);
nPoints 80;
}

line62
{
type uniform;
axis distance;
start (
1.5375
1.05
0
);
end (
1.5375
1.05
2
);
nPoints 80;
}

line63
{
type uniform;
axis distance;
start (
1.5625
1.05
0
);
end (
1.5625
1.05
2
);
nPoints 80;
}

line64
{
type uniform;
axis distance;
start (
1.5875
1.05
0
);
end (
1.5875
1.05
2
);
nPoints 80;
}

line65
{
type uniform;
axis distance;
start (
1.6125
1.05
0
);
end (
1.6125
1.05
2
);
nPoints 80;
}

line66
{
type uniform;
axis distance;
start (
1.6375
1.05
0
);
end (
1.6375
1.05
2
);
nPoints 80;
}

line67
{
type uniform;
axis distance;
start (
1.6625
1.05
0
);
end (
1.6625
1.05
2
);
nPoints 80;
}

line68
{
type uniform;
axis distance;
start (
1.6875
1.05
0
);
end (
1.6875
1.05
2
);
nPoints 80;
}

line69
{
type uniform;
axis distance;
start (
1.7125
1.05
0
);
end (
1.7125
1.05
2
);
nPoints 80;
}

line70
{
type uniform;
axis distance;
start (
1.7375
1.05
0
);
end (
1.7375
1.05
2
);
nPoints 80;
}

line71
{
type uniform;
axis distance;
start (
1.7625
1.05
0
);
end (
1.7625
1.05
2
);
nPoints 80;
}

line72
{
type uniform;
axis distance;
start (
1.7875
1.05
0
);
end (
1.7875
1.05
2
);
nPoints 80;
}

line73
{
type uniform;
axis distance;
start (
1.8125
1.05
0
);
end (
1.8125
1.05
2
);
nPoints 80;
}

line74
{
type uniform;
axis distance;
start (
1.8375
1.05
0
);
end (
1.8375
1.05
2
);
nPoints 80;
}

line75
{
type uniform;
axis distance;
start (
1.8625
1.05
0
);
end (
1.8625
1.05
2
);
nPoints 80;
}

line76
{
type uniform;
axis distance;
start (
1.8875
1.05
0
);
end (
1.8875
1.05
2
);
nPoints 80;
}

line77
{
type uniform;
axis distance;
start (
1.9125
1.05
0
);
end (
1.9125
1.05
2
);
nPoints 80;
}

line78
{
type uniform;
axis distance;
start (
1.9375
1.05
0
);
end (
1.9375
1.05
2
);
nPoints 80;
}

line79
{
type uniform;
axis distance;
start (
1.9625
1.05
0
);
end (
1.9625
1.05
2
);
nPoints 80;
}

line80
{
type uniform;
axis distance;
start (
1.9875
1.05
0
);
end (
1.9875
1.05
2
);
nPoints 80;
}

line81
{
type uniform;
axis distance;
start (
2.0125
1.05
0
);
end (
2.0125
1.05
2
);
nPoints 80;
}

line82
{
type uniform;
axis distance;
start (
2.0375
1.05
0
);
end (
2.0375
1.05
2
);
nPoints 80;
}

line83
{
type uniform;
axis distance;
start (
2.0625
1.05
0
);
end (
2.0625
1.05
2
);
nPoints 80;
}

line84
{
type uniform;
axis distance;
start (
2.0875
1.05
0
);
end (
2.0875
1.05
2
);
nPoints 80;
}

line85
{
type uniform;
axis distance;
start (
2.1125
1.05
0
);
end (
2.1125
1.05
2
);
nPoints 80;
}

line86
{
type uniform;
axis distance;
start (
2.1375
1.05
0
);
end (
2.1375
1.05
2
);
nPoints 80;
}

line87
{
type uniform;
axis distance;
start (
2.1625
1.05
0
);
end (
2.1625
1.05
2
);
nPoints 80;
}

line88
{
type uniform;
axis distance;
start (
2.1875
1.05
0
);
end (
2.1875
1.05
2
);
nPoints 80;
}

line89
{
type uniform;
axis distance;
start (
2.2125
1.05
0
);
end (
2.2125
1.05
2
);
nPoints 80;
}

line90
{
type uniform;
axis distance;
start (
2.2375
1.05
0
);
end (
2.2375
1.05
2
);
nPoints 80;
}

line91
{
type uniform;
axis distance;
start (
2.2625
1.05
0
);
end (
2.2625
1.05
2
);
nPoints 80;
}

line92
{
type uniform;
axis distance;
start (
2.2875
1.05
0
);
end (
2.2875
1.05
2
);
nPoints 80;
}

line93
{
type uniform;
axis distance;
start (
2.3125
1.05
0
);
end (
2.3125
1.05
2
);
nPoints 80;
}

line94
{
type uniform;
axis distance;
start (
2.3375
1.05
0
);
end (
2.3375
1.05
2
);
nPoints 80;
}

line95
{
type uniform;
axis distance;
start (
2.3625
1.05
0
);
end (
2.3625
1.05
2
);
nPoints 80;
}

line96
{
type uniform;
axis distance;
start (
2.3875
1.05
0
);
end (
2.3875
1.05
2
);
nPoints 80;
}

line97
{
type uniform;
axis distance;
start (
2.4125
1.05
0
);
end (
2.4125
1.05
2
);
nPoints 80;
}

line98
{
type uniform;
axis distance;
start (
2.4375
1.05
0
);
end (
2.4375
1.05
2
);
nPoints 80;
}

line99
{
type uniform;
axis distance;
start (
2.4625
1.05
0
);
end (
2.4625
1.05
2
);
nPoints 80;
}

line100
{
type uniform;
axis distance;
start (
2.4875
1.05
0
);
end (
2.4875
1.05
2
);
nPoints 80;
}

line101
{
type uniform;
axis distance;
start (
2.5125
1.05
0
);
end (
2.5125
1.05
2
);
nPoints 80;
}

line102
{
type uniform;
axis distance;
start (
2.5375
1.05
0
);
end (
2.5375
1.05
2
);
nPoints 80;
}

line103
{
type uniform;
axis distance;
start (
2.5625
1.05
0
);
end (
2.5625
1.05
2
);
nPoints 80;
}

line104
{
type uniform;
axis distance;
start (
2.5875
1.05
0
);
end (
2.5875
1.05
2
);
nPoints 80;
}

line105
{
type uniform;
axis distance;
start (
2.6125
1.05
0
);
end (
2.6125
1.05
2
);
nPoints 80;
}

line106
{
type uniform;
axis distance;
start (
2.6375
1.05
0
);
end (
2.6375
1.05
2
);
nPoints 80;
}

line107
{
type uniform;
axis distance;
start (
2.6625
1.05
0
);
end (
2.6625
1.05
2
);
nPoints 80;
}

line108
{
type uniform;
axis distance;
start (
2.6875
1.05
0
);
end (
2.6875
1.05
2
);
nPoints 80;
}

line109
{
type uniform;
axis distance;
start (
2.7125
1.05
0
);
end (
2.7125
1.05
2
);
nPoints 80;
}

line110
{
type uniform;
axis distance;
start (
2.7375
1.05
0
);
end (
2.7375
1.05
2
);
nPoints 80;
}

line111
{
type uniform;
axis distance;
start (
2.7625
1.05
0
);
end (
2.7625
1.05
2
);
nPoints 80;
}

line112
{
type uniform;
axis distance;
start (
2.7875
1.05
0
);
end (
2.7875
1.05
2
);
nPoints 80;
}

line113
{
type uniform;
axis distance;
start (
2.8125
1.05
0
);
end (
2.8125
1.05
2
);
nPoints 80;
}

line114
{
type uniform;
axis distance;
start (
2.8375
1.05
0
);
end (
2.8375
1.05
2
);
nPoints 80;
}

line115
{
type uniform;
axis distance;
start (
2.8625
1.05
0
);
end (
2.8625
1.05
2
);
nPoints 80;
}

line116
{
type uniform;
axis distance;
start (
2.8875
1.05
0
);
end (
2.8875
1.05
2
);
nPoints 80;
}

line117
{
type uniform;
axis distance;
start (
2.9125
1.05
0
);
end (
2.9125
1.05
2
);
nPoints 80;
}

line118
{
type uniform;
axis distance;
start (
2.9375
1.05
0
);
end (
2.9375
1.05
2
);
nPoints 80;
}

line119
{
type uniform;
axis distance;
start (
2.9625
1.05
0
);
end (
2.9625
1.05
2
);
nPoints 80;
}

line120
{
type uniform;
axis distance;
start (
2.9875
1.05
0
);
end (
2.9875
1.05
2
);
nPoints 80;
}

line121
{
type uniform;
axis distance;
start (
3.0125
1.05
0
);
end (
3.0125
1.05
2
);
nPoints 80;
}

line122
{
type uniform;
axis distance;
start (
3.0375
1.05
0
);
end (
3.0375
1.05
2
);
nPoints 80;
}

line123
{
type uniform;
axis distance;
start (
3.0625
1.05
0
);
end (
3.0625
1.05
2
);
nPoints 80;
}

line124
{
type uniform;
axis distance;
start (
3.0875
1.05
0
);
end (
3.0875
1.05
2
);
nPoints 80;
}

line125
{
type uniform;
axis distance;
start (
3.1125
1.05
0
);
end (
3.1125
1.05
2
);
nPoints 80;
}

line126
{
type uniform;
axis distance;
start (
3.1375
1.05
0
);
end (
3.1375
1.05
2
);
nPoints 80;
}

line127
{
type uniform;
axis distance;
start (
3.1625
1.05
0
);
end (
3.1625
1.05
2
);
nPoints 80;
}

line128
{
type uniform;
axis distance;
start (
3.1875
1.05
0
);
end (
3.1875
1.05
2
);
nPoints 80;
}

line129
{
type uniform;
axis distance;
start (
3.2125
1.05
0
);
end (
3.2125
1.05
2
);
nPoints 80;
}

line130
{
type uniform;
axis distance;
start (
3.2375
1.05
0
);
end (
3.2375
1.05
2
);
nPoints 80;
}

line131
{
type uniform;
axis distance;
start (
3.2625
1.05
0
);
end (
3.2625
1.05
2
);
nPoints 80;
}

line132
{
type uniform;
axis distance;
start (
3.2875
1.05
0
);
end (
3.2875
1.05
2
);
nPoints 80;
}

line133
{
type uniform;
axis distance;
start (
3.3125
1.05
0
);
end (
3.3125
1.05
2
);
nPoints 80;
}

line134
{
type uniform;
axis distance;
start (
3.3375
1.05
0
);
end (
3.3375
1.05
2
);
nPoints 80;
}

line135
{
type uniform;
axis distance;
start (
3.3625
1.05
0
);
end (
3.3625
1.05
2
);
nPoints 80;
}

line136
{
type uniform;
axis distance;
start (
3.3875
1.05
0
);
end (
3.3875
1.05
2
);
nPoints 80;
}

line137
{
type uniform;
axis distance;
start (
3.4125
1.05
0
);
end (
3.4125
1.05
2
);
nPoints 80;
}

line138
{
type uniform;
axis distance;
start (
3.4375
1.05
0
);
end (
3.4375
1.05
2
);
nPoints 80;
}

line139
{
type uniform;
axis distance;
start (
3.4625
1.05
0
);
end (
3.4625
1.05
2
);
nPoints 80;
}

line140
{
type uniform;
axis distance;
start (
3.4875
1.05
0
);
end (
3.4875
1.05
2
);
nPoints 80;
}

line141
{
type uniform;
axis distance;
start (
3.5125
1.05
0
);
end (
3.5125
1.05
2
);
nPoints 80;
}

line142
{
type uniform;
axis distance;
start (
3.5375
1.05
0
);
end (
3.5375
1.05
2
);
nPoints 80;
}

line143
{
type uniform;
axis distance;
start (
3.5625
1.05
0
);
end (
3.5625
1.05
2
);
nPoints 80;
}

line144
{
type uniform;
axis distance;
start (
3.5875
1.05
0
);
end (
3.5875
1.05
2
);
nPoints 80;
}

line145
{
type uniform;
axis distance;
start (
3.6125
1.05
0
);
end (
3.6125
1.05
2
);
nPoints 80;
}

line146
{
type uniform;
axis distance;
start (
3.6375
1.05
0
);
end (
3.6375
1.05
2
);
nPoints 80;
}

line147
{
type uniform;
axis distance;
start (
3.6625
1.05
0
);
end (
3.6625
1.05
2
);
nPoints 80;
}

line148
{
type uniform;
axis distance;
start (
3.6875
1.05
0
);
end (
3.6875
1.05
2
);
nPoints 80;
}

line149
{
type uniform;
axis distance;
start (
3.7125
1.05
0
);
end (
3.7125
1.05
2
);
nPoints 80;
}

line150
{
type uniform;
axis distance;
start (
3.7375
1.05
0
);
end (
3.7375
1.05
2
);
nPoints 80;
}

line151
{
type uniform;
axis distance;
start (
3.7625
1.05
0
);
end (
3.7625
1.05
2
);
nPoints 80;
}

line152
{
type uniform;
axis distance;
start (
3.7875
1.05
0
);
end (
3.7875
1.05
2
);
nPoints 80;
}

line153
{
type uniform;
axis distance;
start (
3.8125
1.05
0
);
end (
3.8125
1.05
2
);
nPoints 80;
}

line154
{
type uniform;
axis distance;
start (
3.8375
1.05
0
);
end (
3.8375
1.05
2
);
nPoints 80;
}

line155
{
type uniform;
axis distance;
start (
3.8625
1.05
0
);
end (
3.8625
1.05
2
);
nPoints 80;
}

line156
{
type uniform;
axis distance;
start (
3.8875
1.05
0
);
end (
3.8875
1.05
2
);
nPoints 80;
}

line157
{
type uniform;
axis distance;
start (
3.9125
1.05
0
);
end (
3.9125
1.05
2
);
nPoints 80;
}

line158
{
type uniform;
axis distance;
start (
3.9375
1.05
0
);
end (
3.9375
1.05
2
);
nPoints 80;
}

line159
{
type uniform;
axis distance;
start (
3.9625
1.05
0
);
end (
3.9625
1.05
2
);
nPoints 80;
}

line160
{
type uniform;
axis distance;
start (
3.9875
1.05
0
);
end (
3.9875
1.05
2
);
nPoints 80;
}

line161
{
type uniform;
axis distance;
start (
4.0125
1.05
0
);
end (
4.0125
1.05
2
);
nPoints 80;
}

line162
{
type uniform;
axis distance;
start (
4.0375
1.05
0
);
end (
4.0375
1.05
2
);
nPoints 80;
}

line163
{
type uniform;
axis distance;
start (
4.0625
1.05
0
);
end (
4.0625
1.05
2
);
nPoints 80;
}

line164
{
type uniform;
axis distance;
start (
4.0875
1.05
0
);
end (
4.0875
1.05
2
);
nPoints 80;
}

line165
{
type uniform;
axis distance;
start (
4.1125
1.05
0
);
end (
4.1125
1.05
2
);
nPoints 80;
}

line166
{
type uniform;
axis distance;
start (
4.1375
1.05
0
);
end (
4.1375
1.05
2
);
nPoints 80;
}

line167
{
type uniform;
axis distance;
start (
4.1625
1.05
0
);
end (
4.1625
1.05
2
);
nPoints 80;
}

line168
{
type uniform;
axis distance;
start (
4.1875
1.05
0
);
end (
4.1875
1.05
2
);
nPoints 80;
}

line169
{
type uniform;
axis distance;
start (
4.2125
1.05
0
);
end (
4.2125
1.05
2
);
nPoints 80;
}

line170
{
type uniform;
axis distance;
start (
4.2375
1.05
0
);
end (
4.2375
1.05
2
);
nPoints 80;
}

line171
{
type uniform;
axis distance;
start (
4.2625
1.05
0
);
end (
4.2625
1.05
2
);
nPoints 80;
}

line172
{
type uniform;
axis distance;
start (
4.2875
1.05
0
);
end (
4.2875
1.05
2
);
nPoints 80;
}

line173
{
type uniform;
axis distance;
start (
4.3125
1.05
0
);
end (
4.3125
1.05
2
);
nPoints 80;
}

line174
{
type uniform;
axis distance;
start (
4.3375
1.05
0
);
end (
4.3375
1.05
2
);
nPoints 80;
}

line175
{
type uniform;
axis distance;
start (
4.3625
1.05
0
);
end (
4.3625
1.05
2
);
nPoints 80;
}

line176
{
type uniform;
axis distance;
start (
4.3875
1.05
0
);
end (
4.3875
1.05
2
);
nPoints 80;
}

line177
{
type uniform;
axis distance;
start (
4.4125
1.05
0
);
end (
4.4125
1.05
2
);
nPoints 80;
}

line178
{
type uniform;
axis distance;
start (
4.4375
1.05
0
);
end (
4.4375
1.05
2
);
nPoints 80;
}

line179
{
type uniform;
axis distance;
start (
4.4625
1.05
0
);
end (
4.4625
1.05
2
);
nPoints 80;
}

line180
{
type uniform;
axis distance;
start (
4.4875
1.05
0
);
end (
4.4875
1.05
2
);
nPoints 80;
}

line181
{
type uniform;
axis distance;
start (
4.5125
1.05
0
);
end (
4.5125
1.05
2
);
nPoints 80;
}

line182
{
type uniform;
axis distance;
start (
4.5375
1.05
0
);
end (
4.5375
1.05
2
);
nPoints 80;
}

line183
{
type uniform;
axis distance;
start (
4.5625
1.05
0
);
end (
4.5625
1.05
2
);
nPoints 80;
}

line184
{
type uniform;
axis distance;
start (
4.5875
1.05
0
);
end (
4.5875
1.05
2
);
nPoints 80;
}

line185
{
type uniform;
axis distance;
start (
4.6125
1.05
0
);
end (
4.6125
1.05
2
);
nPoints 80;
}

line186
{
type uniform;
axis distance;
start (
4.6375
1.05
0
);
end (
4.6375
1.05
2
);
nPoints 80;
}

line187
{
type uniform;
axis distance;
start (
4.6625
1.05
0
);
end (
4.6625
1.05
2
);
nPoints 80;
}

line188
{
type uniform;
axis distance;
start (
4.6875
1.05
0
);
end (
4.6875
1.05
2
);
nPoints 80;
}

line189
{
type uniform;
axis distance;
start (
4.7125
1.05
0
);
end (
4.7125
1.05
2
);
nPoints 80;
}

line190
{
type uniform;
axis distance;
start (
4.7375
1.05
0
);
end (
4.7375
1.05
2
);
nPoints 80;
}

line191
{
type uniform;
axis distance;
start (
4.7625
1.05
0
);
end (
4.7625
1.05
2
);
nPoints 80;
}

line192
{
type uniform;
axis distance;
start (
4.7875
1.05
0
);
end (
4.7875
1.05
2
);
nPoints 80;
}

line193
{
type uniform;
axis distance;
start (
4.8125
1.05
0
);
end (
4.8125
1.05
2
);
nPoints 80;
}

line194
{
type uniform;
axis distance;
start (
4.8375
1.05
0
);
end (
4.8375
1.05
2
);
nPoints 80;
}

line195
{
type uniform;
axis distance;
start (
4.8625
1.05
0
);
end (
4.8625
1.05
2
);
nPoints 80;
}

line196
{
type uniform;
axis distance;
start (
4.8875
1.05
0
);
end (
4.8875
1.05
2
);
nPoints 80;
}

line197
{
type uniform;
axis distance;
start (
4.9125
1.05
0
);
end (
4.9125
1.05
2
);
nPoints 80;
}

line198
{
type uniform;
axis distance;
start (
4.9375
1.05
0
);
end (
4.9375
1.05
2
);
nPoints 80;
}

line199
{
type uniform;
axis distance;
start (
4.9625
1.05
0
);
end (
4.9625
1.05
2
);
nPoints 80;
}

line200
{
type uniform;
axis distance;
start (
4.9875
1.05
0
);
end (
4.9875
1.05
2
);
nPoints 80;
}

line201
{
type uniform;
axis distance;
start (
5.0125
1.05
0
);
end (
5.0125
1.05
2
);
nPoints 80;
}

line202
{
type uniform;
axis distance;
start (
5.0375
1.05
0
);
end (
5.0375
1.05
2
);
nPoints 80;
}

line203
{
type uniform;
axis distance;
start (
5.0625
1.05
0
);
end (
5.0625
1.05
2
);
nPoints 80;
}

line204
{
type uniform;
axis distance;
start (
5.0875
1.05
0
);
end (
5.0875
1.05
2
);
nPoints 80;
}

line205
{
type uniform;
axis distance;
start (
5.1125
1.05
0
);
end (
5.1125
1.05
2
);
nPoints 80;
}

line206
{
type uniform;
axis distance;
start (
5.1375
1.05
0
);
end (
5.1375
1.05
2
);
nPoints 80;
}

line207
{
type uniform;
axis distance;
start (
5.1625
1.05
0
);
end (
5.1625
1.05
2
);
nPoints 80;
}

line208
{
type uniform;
axis distance;
start (
5.1875
1.05
0
);
end (
5.1875
1.05
2
);
nPoints 80;
}

line209
{
type uniform;
axis distance;
start (
5.2125
1.05
0
);
end (
5.2125
1.05
2
);
nPoints 80;
}

line210
{
type uniform;
axis distance;
start (
5.2375
1.05
0
);
end (
5.2375
1.05
2
);
nPoints 80;
}

line211
{
type uniform;
axis distance;
start (
5.2625
1.05
0
);
end (
5.2625
1.05
2
);
nPoints 80;
}

line212
{
type uniform;
axis distance;
start (
5.2875
1.05
0
);
end (
5.2875
1.05
2
);
nPoints 80;
}

line213
{
type uniform;
axis distance;
start (
5.3125
1.05
0
);
end (
5.3125
1.05
2
);
nPoints 80;
}

line214
{
type uniform;
axis distance;
start (
5.3375
1.05
0
);
end (
5.3375
1.05
2
);
nPoints 80;
}

line215
{
type uniform;
axis distance;
start (
5.3625
1.05
0
);
end (
5.3625
1.05
2
);
nPoints 80;
}

line216
{
type uniform;
axis distance;
start (
5.3875
1.05
0
);
end (
5.3875
1.05
2
);
nPoints 80;
}

line217
{
type uniform;
axis distance;
start (
5.4125
1.05
0
);
end (
5.4125
1.05
2
);
nPoints 80;
}

line218
{
type uniform;
axis distance;
start (
5.4375
1.05
0
);
end (
5.4375
1.05
2
);
nPoints 80;
}

line219
{
type uniform;
axis distance;
start (
5.4625
1.05
0
);
end (
5.4625
1.05
2
);
nPoints 80;
}

line220
{
type uniform;
axis distance;
start (
5.4875
1.05
0
);
end (
5.4875
1.05
2
);
nPoints 80;
}

line221
{
type uniform;
axis distance;
start (
5.5125
1.05
0
);
end (
5.5125
1.05
2
);
nPoints 80;
}

line222
{
type uniform;
axis distance;
start (
5.5375
1.05
0
);
end (
5.5375
1.05
2
);
nPoints 80;
}

line223
{
type uniform;
axis distance;
start (
5.5625
1.05
0
);
end (
5.5625
1.05
2
);
nPoints 80;
}

line224
{
type uniform;
axis distance;
start (
5.5875
1.05
0
);
end (
5.5875
1.05
2
);
nPoints 80;
}

line225
{
type uniform;
axis distance;
start (
5.6125
1.05
0
);
end (
5.6125
1.05
2
);
nPoints 80;
}

line226
{
type uniform;
axis distance;
start (
5.6375
1.05
0
);
end (
5.6375
1.05
2
);
nPoints 80;
}

line227
{
type uniform;
axis distance;
start (
5.6625
1.05
0
);
end (
5.6625
1.05
2
);
nPoints 80;
}

line228
{
type uniform;
axis distance;
start (
5.6875
1.05
0
);
end (
5.6875
1.05
2
);
nPoints 80;
}

line229
{
type uniform;
axis distance;
start (
5.7125
1.05
0
);
end (
5.7125
1.05
2
);
nPoints 80;
}

line230
{
type uniform;
axis distance;
start (
5.7375
1.05
0
);
end (
5.7375
1.05
2
);
nPoints 80;
}

line231
{
type uniform;
axis distance;
start (
5.7625
1.05
0
);
end (
5.7625
1.05
2
);
nPoints 80;
}

line232
{
type uniform;
axis distance;
start (
5.7875
1.05
0
);
end (
5.7875
1.05
2
);
nPoints 80;
}

line233
{
type uniform;
axis distance;
start (
5.8125
1.05
0
);
end (
5.8125
1.05
2
);
nPoints 80;
}

line234
{
type uniform;
axis distance;
start (
5.8375
1.05
0
);
end (
5.8375
1.05
2
);
nPoints 80;
}

line235
{
type uniform;
axis distance;
start (
5.8625
1.05
0
);
end (
5.8625
1.05
2
);
nPoints 80;
}

line236
{
type uniform;
axis distance;
start (
5.8875
1.05
0
);
end (
5.8875
1.05
2
);
nPoints 80;
}

line237
{
type uniform;
axis distance;
start (
5.9125
1.05
0
);
end (
5.9125
1.05
2
);
nPoints 80;
}

line238
{
type uniform;
axis distance;
start (
5.9375
1.05
0
);
end (
5.9375
1.05
2
);
nPoints 80;
}

line239
{
type uniform;
axis distance;
start (
5.9625
1.05
0
);
end (
5.9625
1.05
2
);
nPoints 80;
}

line240
{
type uniform;
axis distance;
start (
5.9875
1.05
0
);
end (
5.9875
1.05
2
);
nPoints 80;
}

line241
{
type uniform;
axis distance;
start (
6.0125
1.05
0
);
end (
6.0125
1.05
2
);
nPoints 80;
}

line242
{
type uniform;
axis distance;
start (
6.0375
1.05
0
);
end (
6.0375
1.05
2
);
nPoints 80;
}

line243
{
type uniform;
axis distance;
start (
6.0625
1.05
0
);
end (
6.0625
1.05
2
);
nPoints 80;
}

line244
{
type uniform;
axis distance;
start (
6.0875
1.05
0
);
end (
6.0875
1.05
2
);
nPoints 80;
}

line245
{
type uniform;
axis distance;
start (
6.1125
1.05
0
);
end (
6.1125
1.05
2
);
nPoints 80;
}

line246
{
type uniform;
axis distance;
start (
6.1375
1.05
0
);
end (
6.1375
1.05
2
);
nPoints 80;
}

line247
{
type uniform;
axis distance;
start (
6.1625
1.05
0
);
end (
6.1625
1.05
2
);
nPoints 80;
}

line248
{
type uniform;
axis distance;
start (
6.1875
1.05
0
);
end (
6.1875
1.05
2
);
nPoints 80;
}

line249
{
type uniform;
axis distance;
start (
6.2125
1.05
0
);
end (
6.2125
1.05
2
);
nPoints 80;
}

line250
{
type uniform;
axis distance;
start (
6.2375
1.05
0
);
end (
6.2375
1.05
2
);
nPoints 80;
}

line251
{
type uniform;
axis distance;
start (
6.2625
1.05
0
);
end (
6.2625
1.05
2
);
nPoints 80;
}

line252
{
type uniform;
axis distance;
start (
6.2875
1.05
0
);
end (
6.2875
1.05
2
);
nPoints 80;
}

line253
{
type uniform;
axis distance;
start (
6.3125
1.05
0
);
end (
6.3125
1.05
2
);
nPoints 80;
}

line254
{
type uniform;
axis distance;
start (
6.3375
1.05
0
);
end (
6.3375
1.05
2
);
nPoints 80;
}

line255
{
type uniform;
axis distance;
start (
6.3625
1.05
0
);
end (
6.3625
1.05
2
);
nPoints 80;
}

line256
{
type uniform;
axis distance;
start (
6.3875
1.05
0
);
end (
6.3875
1.05
2
);
nPoints 80;
}

line257
{
type uniform;
axis distance;
start (
6.4125
1.05
0
);
end (
6.4125
1.05
2
);
nPoints 80;
}

line258
{
type uniform;
axis distance;
start (
6.4375
1.05
0
);
end (
6.4375
1.05
2
);
nPoints 80;
}

line259
{
type uniform;
axis distance;
start (
6.4625
1.05
0
);
end (
6.4625
1.05
2
);
nPoints 80;
}

line260
{
type uniform;
axis distance;
start (
6.4875
1.05
0
);
end (
6.4875
1.05
2
);
nPoints 80;
}

line261
{
type uniform;
axis distance;
start (
6.5125
1.05
0
);
end (
6.5125
1.05
2
);
nPoints 80;
}

line262
{
type uniform;
axis distance;
start (
6.5375
1.05
0
);
end (
6.5375
1.05
2
);
nPoints 80;
}

line263
{
type uniform;
axis distance;
start (
6.5625
1.05
0
);
end (
6.5625
1.05
2
);
nPoints 80;
}

line264
{
type uniform;
axis distance;
start (
6.5875
1.05
0
);
end (
6.5875
1.05
2
);
nPoints 80;
}

line265
{
type uniform;
axis distance;
start (
6.6125
1.05
0
);
end (
6.6125
1.05
2
);
nPoints 80;
}

line266
{
type uniform;
axis distance;
start (
6.6375
1.05
0
);
end (
6.6375
1.05
2
);
nPoints 80;
}

line267
{
type uniform;
axis distance;
start (
6.6625
1.05
0
);
end (
6.6625
1.05
2
);
nPoints 80;
}

line268
{
type uniform;
axis distance;
start (
6.6875
1.05
0
);
end (
6.6875
1.05
2
);
nPoints 80;
}

line269
{