/*--------------------------------*- C++ -*----------------------------------*\
| =========                 |                                                 |
| \\      /  F ield         | OpenFOAM: The Open Source CFD Toolbox           |
|  \\    /   O peration     | Version:  1.5                                   |
|   \\  /    A nd           | Web:      http://www.OpenFOAM.org               |
|    \\/     M anipulation  |                                                 |
\*---------------------------------------------------------------------------*/
FoamFile
{
    version     2.0;
    format      ascii;
    class       dictionary;
    object      transportProperties;
}
// * * * * * * * * * * * * * * * * * * * * * * * * * * * * * * * * * * * * * //
Cnu     Cnu	 	[0 0 0 0 0 0 0] 	0.7;
nutmax  nutmax 		[0 2 -1 0 0 0 0] 	0.1;
nu      nu	 	[0 2 -1 0 0 0 0]	0.01;
g       g	 	[0 1 -2 0 0 0 0] 	9.81;
b       b	 	[0 1 0 0 0 0 0] 	8.0;
dim_m   dim_m 		[0 1 0 0 0 0 0] 	1.0;
dim_s   dim_s 		[0 0 1 0 0 0 0] 	1.0;
Hdry    Hdry 		[0 1 0 0 0 0 0] 	0.001;
Hdry2	Hdry2 		[0 1 0 0 0 0 0] 	0.00101;
rho     rho 		[1 -3 0 0 0 0 0] 	1000;

// ************************************************************************* //
